<routes>
  <vType accel="3" decel="8" id="CarA" length="5" maxSpeed="15" reroute="false" sigma="0.5" />

  <vehicle id="car_1" color="1,1,0" depart="3" departLane="2" arrivalLane="2" departSpeed="max" type="CarA">
    <route edges="edge_0 -edge_1"/>
  </vehicle>

  <vehicle id="car_2" color="1,1,0" depart="4" departLane="0" arrivalLane="0" departSpeed="max" type="CarA">
    <route edges="edge_1 -edge_0"/>
  </vehicle>

  <vehicle id="car_3" color="1,1,0" depart="7" departLane="1" arrivalLane="2" departSpeed="max" type="CarA">
    <route edges="edge_0 -edge_2"/>
  </vehicle>

  <vehicle id="car_4" color="1,1,0" depart="8" departLane="1" arrivalLane="1" departSpeed="max" type="CarA">
    <route edges="edge_2 -edge_0"/>
  </vehicle>

  <vehicle id="car_5" color="1,1,0" depart="11" departLane="1" arrivalLane="2" departSpeed="max" type="CarA">
    <route edges="edge_0 -edge_2"/>
  </vehicle>

  <vehicle id="car_6" color="1,1,0" depart="11" departLane="0" arrivalLane="1" departSpeed="max" type="CarA">
    <route edges="edge_3 -edge_2"/>
  </vehicle>

  <vehicle id="car_7" color="1,1,0" depart="12" departLane="1" arrivalLane="1" departSpeed="max" type="CarA">
    <route edges="edge_1 -edge_3"/>
  </vehicle>

  <vehicle id="car_8" color="1,1,0" depart="15" departLane="0" arrivalLane="2" departSpeed="max" type="CarA">
    <route edges="edge_2 -edge_1"/>
  </vehicle>

  <vehicle id="car_9" color="1,1,0" depart="17" departLane="2" arrivalLane="0" departSpeed="max" type="CarA">
    <route edges="edge_0 -edge_1"/>
  </vehicle>

  <vehicle id="car_10" color="1,1,0" depart="18" departLane="2" arrivalLane="2" departSpeed="max" type="CarA">
    <route edges="edge_3 -edge_0"/>
  </vehicle>

  <vehicle id="car_11" color="1,1,0" depart="20" departLane="0" arrivalLane="1" departSpeed="max" type="CarA">
    <route edges="edge_2 -edge_1"/>
  </vehicle>

  <vehicle id="car_12" color="1,1,0" depart="26" departLane="2" arrivalLane="0" departSpeed="max" type="CarA">
    <route edges="edge_1 -edge_2"/>
  </vehicle>

  <vehicle id="car_13" color="1,1,0" depart="32" departLane="0" arrivalLane="1" departSpeed="max" type="CarA">
    <route edges="edge_3 -edge_2"/>
  </vehicle>

  <vehicle id="car_14" color="1,1,0" depart="33" departLane="0" arrivalLane="2" departSpeed="max" type="CarA">
    <route edges="edge_2 -edge_1"/>
  </vehicle>

  <vehicle id="car_15" color="1,1,0" depart="35" departLane="1" arrivalLane="0" departSpeed="max" type="CarA">
    <route edges="edge_3 -edge_1"/>
  </vehicle>

  <vehicle id="car_16" color="1,1,0" depart="38" departLane="0" arrivalLane="0" departSpeed="max" type="CarA">
    <route edges="edge_2 -edge_1"/>
  </vehicle>

  <vehicle id="car_17" color="1,1,0" depart="39" departLane="2" arrivalLane="2" departSpeed="max" type="CarA">
    <route edges="edge_0 -edge_1"/>
  </vehicle>

  <vehicle id="car_18" color="1,1,0" depart="44" departLane="0" arrivalLane="0" departSpeed="max" type="CarA">
    <route edges="edge_2 -edge_1"/>
  </vehicle>

  <vehicle id="car_19" color="1,1,0" depart="44" departLane="1" arrivalLane="2" departSpeed="max" type="CarA">
    <route edges="edge_0 -edge_2"/>
  </vehicle>

  <vehicle id="car_20" color="1,1,0" depart="46" departLane="1" arrivalLane="0" departSpeed="max" type="CarA">
    <route edges="edge_3 -edge_1"/>
  </vehicle>

  <vehicle id="car_21" color="1,1,0" depart="50" departLane="1" arrivalLane="0" departSpeed="max" type="CarA">
    <route edges="edge_1 -edge_3"/>
  </vehicle>

  <vehicle id="car_22" color="1,1,0" depart="51" departLane="2" arrivalLane="0" departSpeed="max" type="CarA">
    <route edges="edge_2 -edge_3"/>
  </vehicle>

  <vehicle id="car_23" color="1,1,0" depart="54" departLane="2" arrivalLane="1" departSpeed="max" type="CarA">
    <route edges="edge_2 -edge_3"/>
  </vehicle>

  <vehicle id="car_24" color="1,1,0" depart="56" departLane="0" arrivalLane="2" departSpeed="max" type="CarA">
    <route edges="edge_1 -edge_0"/>
  </vehicle>

  <vehicle id="car_25" color="1,1,0" depart="56" departLane="1" arrivalLane="1" departSpeed="max" type="CarA">
    <route edges="edge_0 -edge_2"/>
  </vehicle>

  <vehicle id="car_26" color="1,1,0" depart="67" departLane="0" arrivalLane="1" departSpeed="max" type="CarA">
    <route edges="edge_0 -edge_3"/>
  </vehicle>

  <vehicle id="car_27" color="1,1,0" depart="67" departLane="2" arrivalLane="2" departSpeed="max" type="CarA">
    <route edges="edge_1 -edge_2"/>
  </vehicle>

  <vehicle id="car_28" color="1,1,0" depart="70" departLane="0" arrivalLane="0" departSpeed="max" type="CarA">
    <route edges="edge_0 -edge_3"/>
  </vehicle>

  <vehicle id="car_29" color="1,1,0" depart="71" departLane="2" arrivalLane="2" departSpeed="max" type="CarA">
    <route edges="edge_0 -edge_1"/>
  </vehicle>

  <vehicle id="car_30" color="1,1,0" depart="73" departLane="2" arrivalLane="1" departSpeed="max" type="CarA">
    <route edges="edge_2 -edge_3"/>
  </vehicle>

  <vehicle id="car_31" color="1,1,0" depart="75" departLane="2" arrivalLane="1" departSpeed="max" type="CarA">
    <route edges="edge_2 -edge_3"/>
  </vehicle>

  <vehicle id="car_32" color="1,1,0" depart="78" departLane="2" arrivalLane="1" departSpeed="max" type="CarA">
    <route edges="edge_3 -edge_0"/>
  </vehicle>

  <vehicle id="car_33" color="1,1,0" depart="84" departLane="0" arrivalLane="2" departSpeed="max" type="CarA">
    <route edges="edge_2 -edge_1"/>
  </vehicle>

  <vehicle id="car_34" color="1,1,0" depart="89" departLane="0" arrivalLane="0" departSpeed="max" type="CarA">
    <route edges="edge_3 -edge_2"/>
  </vehicle>

  <vehicle id="car_35" color="1,1,0" depart="90" departLane="2" arrivalLane="0" departSpeed="max" type="CarA">
    <route edges="edge_0 -edge_1"/>
  </vehicle>

  <vehicle id="car_36" color="1,1,0" depart="90" departLane="0" arrivalLane="2" departSpeed="max" type="CarA">
    <route edges="edge_0 -edge_3"/>
  </vehicle>

  <vehicle id="car_37" color="1,1,0" depart="101" departLane="0" arrivalLane="1" departSpeed="max" type="CarA">
    <route edges="edge_3 -edge_2"/>
  </vehicle>

  <vehicle id="car_38" color="1,1,0" depart="112" departLane="1" arrivalLane="0" departSpeed="max" type="CarA">
    <route edges="edge_2 -edge_0"/>
  </vehicle>

  <vehicle id="car_39" color="1,1,0" depart="113" departLane="1" arrivalLane="0" departSpeed="max" type="CarA">
    <route edges="edge_1 -edge_3"/>
  </vehicle>

  <vehicle id="car_40" color="1,1,0" depart="119" departLane="0" arrivalLane="2" departSpeed="max" type="CarA">
    <route edges="edge_3 -edge_2"/>
  </vehicle>

  <vehicle id="car_41" color="1,1,0" depart="119" departLane="0" arrivalLane="1" departSpeed="max" type="CarA">
    <route edges="edge_0 -edge_3"/>
  </vehicle>

  <vehicle id="car_42" color="1,1,0" depart="125" departLane="1" arrivalLane="2" departSpeed="max" type="CarA">
    <route edges="edge_1 -edge_3"/>
  </vehicle>

  <vehicle id="car_43" color="1,1,0" depart="129" departLane="1" arrivalLane="2" departSpeed="max" type="CarA">
    <route edges="edge_0 -edge_2"/>
  </vehicle>

  <vehicle id="car_44" color="1,1,0" depart="130" departLane="2" arrivalLane="1" departSpeed="max" type="CarA">
    <route edges="edge_3 -edge_0"/>
  </vehicle>

  <vehicle id="car_45" color="1,1,0" depart="132" departLane="0" arrivalLane="2" departSpeed="max" type="CarA">
    <route edges="edge_1 -edge_0"/>
  </vehicle>

  <vehicle id="car_46" color="1,1,0" depart="135" departLane="2" arrivalLane="1" departSpeed="max" type="CarA">
    <route edges="edge_0 -edge_1"/>
  </vehicle>

  <vehicle id="car_47" color="1,1,0" depart="136" departLane="0" arrivalLane="2" departSpeed="max" type="CarA">
    <route edges="edge_0 -edge_3"/>
  </vehicle>

  <vehicle id="car_48" color="1,1,0" depart="142" departLane="2" arrivalLane="1" departSpeed="max" type="CarA">
    <route edges="edge_1 -edge_2"/>
  </vehicle>

  <vehicle id="car_49" color="1,1,0" depart="142" departLane="2" arrivalLane="2" departSpeed="max" type="CarA">
    <route edges="edge_1 -edge_2"/>
  </vehicle>

  <vehicle id="car_50" color="1,1,0" depart="145" departLane="0" arrivalLane="0" departSpeed="max" type="CarA">
    <route edges="edge_0 -edge_3"/>
  </vehicle>

  <vehicle id="car_51" color="1,1,0" depart="153" departLane="1" arrivalLane="2" departSpeed="max" type="CarA">
    <route edges="edge_2 -edge_0"/>
  </vehicle>

  <vehicle id="car_52" color="1,1,0" depart="154" departLane="2" arrivalLane="2" departSpeed="max" type="CarA">
    <route edges="edge_0 -edge_1"/>
  </vehicle>

  <vehicle id="car_53" color="1,1,0" depart="157" departLane="2" arrivalLane="1" departSpeed="max" type="CarA">
    <route edges="edge_2 -edge_3"/>
  </vehicle>

  <vehicle id="car_54" color="1,1,0" depart="157" departLane="1" arrivalLane="1" departSpeed="max" type="CarA">
    <route edges="edge_1 -edge_3"/>
  </vehicle>

  <vehicle id="car_55" color="1,1,0" depart="159" departLane="2" arrivalLane="2" departSpeed="max" type="CarA">
    <route edges="edge_0 -edge_1"/>
  </vehicle>

  <vehicle id="car_56" color="1,1,0" depart="161" departLane="0" arrivalLane="0" departSpeed="max" type="CarA">
    <route edges="edge_0 -edge_3"/>
  </vehicle>

  <vehicle id="car_57" color="1,1,0" depart="163" departLane="1" arrivalLane="2" departSpeed="max" type="CarA">
    <route edges="edge_0 -edge_2"/>
  </vehicle>

  <vehicle id="car_58" color="1,1,0" depart="166" departLane="1" arrivalLane="1" departSpeed="max" type="CarA">
    <route edges="edge_3 -edge_1"/>
  </vehicle>

  <vehicle id="car_59" color="1,1,0" depart="171" departLane="2" arrivalLane="2" departSpeed="max" type="CarA">
    <route edges="edge_1 -edge_2"/>
  </vehicle>

  <vehicle id="car_60" color="1,1,0" depart="171" departLane="0" arrivalLane="0" departSpeed="max" type="CarA">
    <route edges="edge_1 -edge_0"/>
  </vehicle>

  <vehicle id="car_61" color="1,1,0" depart="173" departLane="1" arrivalLane="1" departSpeed="max" type="CarA">
    <route edges="edge_2 -edge_0"/>
  </vehicle>

  <vehicle id="car_62" color="1,1,0" depart="177" departLane="0" arrivalLane="2" departSpeed="max" type="CarA">
    <route edges="edge_0 -edge_3"/>
  </vehicle>

  <vehicle id="car_63" color="1,1,0" depart="178" departLane="2" arrivalLane="0" departSpeed="max" type="CarA">
    <route edges="edge_3 -edge_0"/>
  </vehicle>

  <vehicle id="car_64" color="1,1,0" depart="184" departLane="2" arrivalLane="1" departSpeed="max" type="CarA">
    <route edges="edge_1 -edge_2"/>
  </vehicle>

  <vehicle id="car_65" color="1,1,0" depart="184" departLane="1" arrivalLane="1" departSpeed="max" type="CarA">
    <route edges="edge_1 -edge_3"/>
  </vehicle>

  <vehicle id="car_66" color="1,1,0" depart="184" departLane="0" arrivalLane="0" departSpeed="max" type="CarA">
    <route edges="edge_1 -edge_0"/>
  </vehicle>

  <vehicle id="car_67" color="1,1,0" depart="185" departLane="1" arrivalLane="2" departSpeed="max" type="CarA">
    <route edges="edge_0 -edge_2"/>
  </vehicle>

  <vehicle id="car_68" color="1,1,0" depart="185" departLane="2" arrivalLane="0" departSpeed="max" type="CarA">
    <route edges="edge_0 -edge_1"/>
  </vehicle>

  <vehicle id="car_69" color="1,1,0" depart="196" departLane="1" arrivalLane="0" departSpeed="max" type="CarA">
    <route edges="edge_2 -edge_0"/>
  </vehicle>

  <vehicle id="car_70" color="1,1,0" depart="200" departLane="0" arrivalLane="1" departSpeed="max" type="CarA">
    <route edges="edge_1 -edge_0"/>
  </vehicle>

  <vehicle id="car_71" color="1,1,0" depart="200" departLane="2" arrivalLane="0" departSpeed="max" type="CarA">
    <route edges="edge_2 -edge_3"/>
  </vehicle>

  <vehicle id="car_72" color="1,1,0" depart="206" departLane="0" arrivalLane="1" departSpeed="max" type="CarA">
    <route edges="edge_2 -edge_1"/>
  </vehicle>

  <vehicle id="car_73" color="1,1,0" depart="211" departLane="2" arrivalLane="0" departSpeed="max" type="CarA">
    <route edges="edge_3 -edge_0"/>
  </vehicle>

  <vehicle id="car_74" color="1,1,0" depart="217" departLane="0" arrivalLane="2" departSpeed="max" type="CarA">
    <route edges="edge_0 -edge_3"/>
  </vehicle>

  <vehicle id="car_75" color="1,1,0" depart="218" departLane="1" arrivalLane="0" departSpeed="max" type="CarA">
    <route edges="edge_0 -edge_2"/>
  </vehicle>

  <vehicle id="car_76" color="1,1,0" depart="220" departLane="2" arrivalLane="0" departSpeed="max" type="CarA">
    <route edges="edge_2 -edge_3"/>
  </vehicle>

  <vehicle id="car_77" color="1,1,0" depart="224" departLane="0" arrivalLane="1" departSpeed="max" type="CarA">
    <route edges="edge_0 -edge_3"/>
  </vehicle>

  <vehicle id="car_78" color="1,1,0" depart="234" departLane="1" arrivalLane="1" departSpeed="max" type="CarA">
    <route edges="edge_3 -edge_1"/>
  </vehicle>

  <vehicle id="car_79" color="1,1,0" depart="251" departLane="2" arrivalLane="2" departSpeed="max" type="CarA">
    <route edges="edge_1 -edge_2"/>
  </vehicle>

  <vehicle id="car_80" color="1,1,0" depart="264" departLane="2" arrivalLane="2" departSpeed="max" type="CarA">
    <route edges="edge_0 -edge_1"/>
  </vehicle>

  <vehicle id="car_81" color="1,1,0" depart="265" departLane="0" arrivalLane="2" departSpeed="max" type="CarA">
    <route edges="edge_3 -edge_2"/>
  </vehicle>

  <vehicle id="car_82" color="1,1,0" depart="265" departLane="1" arrivalLane="2" departSpeed="max" type="CarA">
    <route edges="edge_0 -edge_2"/>
  </vehicle>

  <vehicle id="car_83" color="1,1,0" depart="266" departLane="2" arrivalLane="0" departSpeed="max" type="CarA">
    <route edges="edge_3 -edge_0"/>
  </vehicle>

  <vehicle id="car_84" color="1,1,0" depart="277" departLane="1" arrivalLane="0" departSpeed="max" type="CarA">
    <route edges="edge_2 -edge_0"/>
  </vehicle>

  <vehicle id="car_85" color="1,1,0" depart="277" departLane="2" arrivalLane="0" departSpeed="max" type="CarA">
    <route edges="edge_2 -edge_3"/>
  </vehicle>

  <vehicle id="car_86" color="1,1,0" depart="284" departLane="2" arrivalLane="2" departSpeed="max" type="CarA">
    <route edges="edge_0 -edge_1"/>
  </vehicle>

  <vehicle id="car_87" color="1,1,0" depart="285" departLane="0" arrivalLane="1" departSpeed="max" type="CarA">
    <route edges="edge_1 -edge_0"/>
  </vehicle>

  <vehicle id="car_88" color="1,1,0" depart="286" departLane="2" arrivalLane="2" departSpeed="max" type="CarA">
    <route edges="edge_1 -edge_2"/>
  </vehicle>

  <vehicle id="car_89" color="1,1,0" depart="291" departLane="0" arrivalLane="2" departSpeed="max" type="CarA">
    <route edges="edge_3 -edge_2"/>
  </vehicle>

  <vehicle id="car_90" color="1,1,0" depart="292" departLane="1" arrivalLane="1" departSpeed="max" type="CarA">
    <route edges="edge_1 -edge_3"/>
  </vehicle>

  <vehicle id="car_91" color="1,1,0" depart="292" departLane="1" arrivalLane="1" departSpeed="max" type="CarA">
    <route edges="edge_1 -edge_3"/>
  </vehicle>

  <vehicle id="car_92" color="1,1,0" depart="295" departLane="0" arrivalLane="2" departSpeed="max" type="CarA">
    <route edges="edge_2 -edge_1"/>
  </vehicle>

  <vehicle id="car_93" color="1,1,0" depart="295" departLane="0" arrivalLane="1" departSpeed="max" type="CarA">
    <route edges="edge_2 -edge_1"/>
  </vehicle>

  <vehicle id="car_94" color="1,1,0" depart="297" departLane="1" arrivalLane="2" departSpeed="max" type="CarA">
    <route edges="edge_0 -edge_2"/>
  </vehicle>

  <vehicle id="car_95" color="1,1,0" depart="297" departLane="0" arrivalLane="2" departSpeed="max" type="CarA">
    <route edges="edge_3 -edge_2"/>
  </vehicle>

  <vehicle id="car_96" color="1,1,0" depart="297" departLane="0" arrivalLane="0" departSpeed="max" type="CarA">
    <route edges="edge_0 -edge_3"/>
  </vehicle>

  <vehicle id="car_97" color="1,1,0" depart="303" departLane="1" arrivalLane="0" departSpeed="max" type="CarA">
    <route edges="edge_1 -edge_3"/>
  </vehicle>

  <vehicle id="car_98" color="1,1,0" depart="305" departLane="2" arrivalLane="2" departSpeed="max" type="CarA">
    <route edges="edge_0 -edge_1"/>
  </vehicle>

  <vehicle id="car_99" color="1,1,0" depart="308" departLane="1" arrivalLane="2" departSpeed="max" type="CarA">
    <route edges="edge_0 -edge_2"/>
  </vehicle>

  <vehicle id="car_100" color="1,1,0" depart="315" departLane="0" arrivalLane="2" departSpeed="max" type="CarA">
    <route edges="edge_3 -edge_2"/>
  </vehicle>

  <vehicle id="car_101" color="1,1,0" depart="318" departLane="0" arrivalLane="2" departSpeed="max" type="CarA">
    <route edges="edge_0 -edge_3"/>
  </vehicle>

  <vehicle id="car_102" color="1,1,0" depart="325" departLane="0" arrivalLane="1" departSpeed="max" type="CarA">
    <route edges="edge_0 -edge_3"/>
  </vehicle>

  <vehicle id="car_103" color="1,1,0" depart="333" departLane="1" arrivalLane="1" departSpeed="max" type="CarA">
    <route edges="edge_3 -edge_1"/>
  </vehicle>

  <vehicle id="car_104" color="1,1,0" depart="341" departLane="1" arrivalLane="2" departSpeed="max" type="CarA">
    <route edges="edge_0 -edge_2"/>
  </vehicle>

  <vehicle id="car_105" color="1,1,0" depart="341" departLane="0" arrivalLane="0" departSpeed="max" type="CarA">
    <route edges="edge_2 -edge_1"/>
  </vehicle>

  <vehicle id="car_106" color="1,1,0" depart="343" departLane="1" arrivalLane="0" departSpeed="max" type="CarA">
    <route edges="edge_2 -edge_0"/>
  </vehicle>

  <vehicle id="car_107" color="1,1,0" depart="346" departLane="2" arrivalLane="2" departSpeed="max" type="CarA">
    <route edges="edge_3 -edge_0"/>
  </vehicle>

  <vehicle id="car_108" color="1,1,0" depart="349" departLane="0" arrivalLane="0" departSpeed="max" type="CarA">
    <route edges="edge_0 -edge_3"/>
  </vehicle>

  <vehicle id="car_109" color="1,1,0" depart="355" departLane="0" arrivalLane="1" departSpeed="max" type="CarA">
    <route edges="edge_0 -edge_3"/>
  </vehicle>

  <vehicle id="car_110" color="1,1,0" depart="360" departLane="2" arrivalLane="1" departSpeed="max" type="CarA">
    <route edges="edge_1 -edge_2"/>
  </vehicle>

  <vehicle id="car_111" color="1,1,0" depart="362" departLane="2" arrivalLane="1" departSpeed="max" type="CarA">
    <route edges="edge_2 -edge_3"/>
  </vehicle>

  <vehicle id="car_112" color="1,1,0" depart="366" departLane="0" arrivalLane="0" departSpeed="max" type="CarA">
    <route edges="edge_2 -edge_1"/>
  </vehicle>

  <vehicle id="car_113" color="1,1,0" depart="367" departLane="2" arrivalLane="2" departSpeed="max" type="CarA">
    <route edges="edge_2 -edge_3"/>
  </vehicle>

  <vehicle id="car_114" color="1,1,0" depart="369" departLane="2" arrivalLane="0" departSpeed="max" type="CarA">
    <route edges="edge_0 -edge_1"/>
  </vehicle>

  <vehicle id="car_115" color="1,1,0" depart="372" departLane="2" arrivalLane="1" departSpeed="max" type="CarA">
    <route edges="edge_1 -edge_2"/>
  </vehicle>

  <vehicle id="car_116" color="1,1,0" depart="378" departLane="0" arrivalLane="0" departSpeed="max" type="CarA">
    <route edges="edge_3 -edge_2"/>
  </vehicle>

  <vehicle id="car_117" color="1,1,0" depart="381" departLane="2" arrivalLane="2" departSpeed="max" type="CarA">
    <route edges="edge_2 -edge_3"/>
  </vehicle>

  <vehicle id="car_118" color="1,1,0" depart="382" departLane="2" arrivalLane="0" departSpeed="max" type="CarA">
    <route edges="edge_1 -edge_2"/>
  </vehicle>

  <vehicle id="car_119" color="1,1,0" depart="389" departLane="0" arrivalLane="2" departSpeed="max" type="CarA">
    <route edges="edge_0 -edge_3"/>
  </vehicle>

  <vehicle id="car_120" color="1,1,0" depart="390" departLane="1" arrivalLane="1" departSpeed="max" type="CarA">
    <route edges="edge_2 -edge_0"/>
  </vehicle>

  <vehicle id="car_121" color="1,1,0" depart="391" departLane="1" arrivalLane="0" departSpeed="max" type="CarA">
    <route edges="edge_1 -edge_3"/>
  </vehicle>

  <vehicle id="car_122" color="1,1,0" depart="392" departLane="1" arrivalLane="1" departSpeed="max" type="CarA">
    <route edges="edge_3 -edge_1"/>
  </vehicle>

  <vehicle id="car_123" color="1,1,0" depart="395" departLane="2" arrivalLane="1" departSpeed="max" type="CarA">
    <route edges="edge_3 -edge_0"/>
  </vehicle>

  <vehicle id="car_124" color="1,1,0" depart="399" departLane="2" arrivalLane="2" departSpeed="max" type="CarA">
    <route edges="edge_0 -edge_1"/>
  </vehicle>

  <vehicle id="car_125" color="1,1,0" depart="400" departLane="0" arrivalLane="1" departSpeed="max" type="CarA">
    <route edges="edge_3 -edge_2"/>
  </vehicle>

  <vehicle id="car_126" color="1,1,0" depart="401" departLane="1" arrivalLane="2" departSpeed="max" type="CarA">
    <route edges="edge_2 -edge_0"/>
  </vehicle>

  <vehicle id="car_127" color="1,1,0" depart="401" departLane="2" arrivalLane="1" departSpeed="max" type="CarA">
    <route edges="edge_1 -edge_2"/>
  </vehicle>

  <vehicle id="car_128" color="1,1,0" depart="401" departLane="2" arrivalLane="2" departSpeed="max" type="CarA">
    <route edges="edge_3 -edge_0"/>
  </vehicle>

  <vehicle id="car_129" color="1,1,0" depart="404" departLane="0" arrivalLane="2" departSpeed="max" type="CarA">
    <route edges="edge_3 -edge_2"/>
  </vehicle>

  <vehicle id="car_130" color="1,1,0" depart="404" departLane="2" arrivalLane="0" departSpeed="max" type="CarA">
    <route edges="edge_1 -edge_2"/>
  </vehicle>

  <vehicle id="car_131" color="1,1,0" depart="404" departLane="0" arrivalLane="1" departSpeed="max" type="CarA">
    <route edges="edge_0 -edge_3"/>
  </vehicle>

  <vehicle id="car_132" color="1,1,0" depart="406" departLane="2" arrivalLane="1" departSpeed="max" type="CarA">
    <route edges="edge_2 -edge_3"/>
  </vehicle>

  <vehicle id="car_133" color="1,1,0" depart="407" departLane="0" arrivalLane="2" departSpeed="max" type="CarA">
    <route edges="edge_3 -edge_2"/>
  </vehicle>

  <vehicle id="car_134" color="1,1,0" depart="407" departLane="2" arrivalLane="0" departSpeed="max" type="CarA">
    <route edges="edge_2 -edge_3"/>
  </vehicle>

  <vehicle id="car_135" color="1,1,0" depart="408" departLane="1" arrivalLane="0" departSpeed="max" type="CarA">
    <route edges="edge_1 -edge_3"/>
  </vehicle>

  <vehicle id="car_136" color="1,1,0" depart="409" departLane="0" arrivalLane="2" departSpeed="max" type="CarA">
    <route edges="edge_1 -edge_0"/>
  </vehicle>

  <vehicle id="car_137" color="1,1,0" depart="411" departLane="0" arrivalLane="2" departSpeed="max" type="CarA">
    <route edges="edge_3 -edge_2"/>
  </vehicle>

  <vehicle id="car_138" color="1,1,0" depart="412" departLane="2" arrivalLane="0" departSpeed="max" type="CarA">
    <route edges="edge_0 -edge_1"/>
  </vehicle>

  <vehicle id="car_139" color="1,1,0" depart="417" departLane="1" arrivalLane="1" departSpeed="max" type="CarA">
    <route edges="edge_2 -edge_0"/>
  </vehicle>

  <vehicle id="car_140" color="1,1,0" depart="421" departLane="1" arrivalLane="0" departSpeed="max" type="CarA">
    <route edges="edge_2 -edge_0"/>
  </vehicle>

  <vehicle id="car_141" color="1,1,0" depart="422" departLane="2" arrivalLane="1" departSpeed="max" type="CarA">
    <route edges="edge_1 -edge_2"/>
  </vehicle>

  <vehicle id="car_142" color="1,1,0" depart="426" departLane="0" arrivalLane="1" departSpeed="max" type="CarA">
    <route edges="edge_2 -edge_1"/>
  </vehicle>

  <vehicle id="car_143" color="1,1,0" depart="427" departLane="0" arrivalLane="1" departSpeed="max" type="CarA">
    <route edges="edge_3 -edge_2"/>
  </vehicle>

  <vehicle id="car_144" color="1,1,0" depart="432" departLane="2" arrivalLane="1" departSpeed="max" type="CarA">
    <route edges="edge_2 -edge_3"/>
  </vehicle>

  <vehicle id="car_145" color="1,1,0" depart="433" departLane="2" arrivalLane="0" departSpeed="max" type="CarA">
    <route edges="edge_3 -edge_0"/>
  </vehicle>

  <vehicle id="car_146" color="1,1,0" depart="437" departLane="0" arrivalLane="1" departSpeed="max" type="CarA">
    <route edges="edge_1 -edge_0"/>
  </vehicle>

  <vehicle id="car_147" color="1,1,0" depart="439" departLane="2" arrivalLane="2" departSpeed="max" type="CarA">
    <route edges="edge_2 -edge_3"/>
  </vehicle>

  <vehicle id="car_148" color="1,1,0" depart="443" departLane="2" arrivalLane="1" departSpeed="max" type="CarA">
    <route edges="edge_2 -edge_3"/>
  </vehicle>

  <vehicle id="car_149" color="1,1,0" depart="448" departLane="1" arrivalLane="1" departSpeed="max" type="CarA">
    <route edges="edge_1 -edge_3"/>
  </vehicle>

  <vehicle id="car_150" color="1,1,0" depart="452" departLane="1" arrivalLane="0" departSpeed="max" type="CarA">
    <route edges="edge_0 -edge_2"/>
  </vehicle>

  <vehicle id="car_151" color="1,1,0" depart="452" departLane="1" arrivalLane="0" departSpeed="max" type="CarA">
    <route edges="edge_3 -edge_1"/>
  </vehicle>

  <vehicle id="car_152" color="1,1,0" depart="454" departLane="0" arrivalLane="0" departSpeed="max" type="CarA">
    <route edges="edge_1 -edge_0"/>
  </vehicle>

  <vehicle id="car_153" color="1,1,0" depart="454" departLane="1" arrivalLane="2" departSpeed="max" type="CarA">
    <route edges="edge_1 -edge_3"/>
  </vehicle>

  <vehicle id="car_154" color="1,1,0" depart="459" departLane="1" arrivalLane="0" departSpeed="max" type="CarA">
    <route edges="edge_0 -edge_2"/>
  </vehicle>

  <vehicle id="car_155" color="1,1,0" depart="460" departLane="2" arrivalLane="1" departSpeed="max" type="CarA">
    <route edges="edge_1 -edge_2"/>
  </vehicle>

  <vehicle id="car_156" color="1,1,0" depart="460" departLane="0" arrivalLane="1" departSpeed="max" type="CarA">
    <route edges="edge_0 -edge_3"/>
  </vehicle>

  <vehicle id="car_157" color="1,1,0" depart="465" departLane="2" arrivalLane="2" departSpeed="max" type="CarA">
    <route edges="edge_1 -edge_2"/>
  </vehicle>

  <vehicle id="car_158" color="1,1,0" depart="466" departLane="0" arrivalLane="0" departSpeed="max" type="CarA">
    <route edges="edge_2 -edge_1"/>
  </vehicle>

  <vehicle id="car_159" color="1,1,0" depart="466" departLane="1" arrivalLane="1" departSpeed="max" type="CarA">
    <route edges="edge_0 -edge_2"/>
  </vehicle>

  <vehicle id="car_160" color="1,1,0" depart="468" departLane="0" arrivalLane="0" departSpeed="max" type="CarA">
    <route edges="edge_3 -edge_2"/>
  </vehicle>

  <vehicle id="car_161" color="1,1,0" depart="470" departLane="1" arrivalLane="0" departSpeed="max" type="CarA">
    <route edges="edge_2 -edge_0"/>
  </vehicle>

  <vehicle id="car_162" color="1,1,0" depart="473" departLane="1" arrivalLane="0" departSpeed="max" type="CarA">
    <route edges="edge_0 -edge_2"/>
  </vehicle>

  <vehicle id="car_163" color="1,1,0" depart="473" departLane="0" arrivalLane="0" departSpeed="max" type="CarA">
    <route edges="edge_0 -edge_3"/>
  </vehicle>

  <vehicle id="car_164" color="1,1,0" depart="476" departLane="0" arrivalLane="0" departSpeed="max" type="CarA">
    <route edges="edge_0 -edge_3"/>
  </vehicle>

  <vehicle id="car_165" color="1,1,0" depart="477" departLane="1" arrivalLane="1" departSpeed="max" type="CarA">
    <route edges="edge_2 -edge_0"/>
  </vehicle>

  <vehicle id="car_166" color="1,1,0" depart="496" departLane="2" arrivalLane="1" departSpeed="max" type="CarA">
    <route edges="edge_1 -edge_2"/>
  </vehicle>

  <vehicle id="car_167" color="1,1,0" depart="498" departLane="0" arrivalLane="0" departSpeed="max" type="CarA">
    <route edges="edge_0 -edge_3"/>
  </vehicle>

  <vehicle id="car_168" color="1,1,0" depart="500" departLane="2" arrivalLane="2" departSpeed="max" type="CarA">
    <route edges="edge_2 -edge_3"/>
  </vehicle>

  <vehicle id="car_169" color="1,1,0" depart="500" departLane="2" arrivalLane="1" departSpeed="max" type="CarA">
    <route edges="edge_2 -edge_3"/>
  </vehicle>

  <vehicle id="car_170" color="1,1,0" depart="506" departLane="2" arrivalLane="1" departSpeed="max" type="CarA">
    <route edges="edge_0 -edge_1"/>
  </vehicle>

  <vehicle id="car_171" color="1,1,0" depart="513" departLane="1" arrivalLane="1" departSpeed="max" type="CarA">
    <route edges="edge_1 -edge_3"/>
  </vehicle>

  <vehicle id="car_172" color="1,1,0" depart="513" departLane="2" arrivalLane="0" departSpeed="max" type="CarA">
    <route edges="edge_3 -edge_0"/>
  </vehicle>

  <vehicle id="car_173" color="1,1,0" depart="515" departLane="2" arrivalLane="0" departSpeed="max" type="CarA">
    <route edges="edge_0 -edge_1"/>
  </vehicle>

  <vehicle id="car_174" color="1,1,0" depart="516" departLane="1" arrivalLane="2" departSpeed="max" type="CarA">
    <route edges="edge_3 -edge_1"/>
  </vehicle>

  <vehicle id="car_175" color="1,1,0" depart="516" departLane="0" arrivalLane="0" departSpeed="max" type="CarA">
    <route edges="edge_1 -edge_0"/>
  </vehicle>

  <vehicle id="car_176" color="1,1,0" depart="522" departLane="0" arrivalLane="0" departSpeed="max" type="CarA">
    <route edges="edge_1 -edge_0"/>
  </vehicle>

  <vehicle id="car_177" color="1,1,0" depart="524" departLane="0" arrivalLane="0" departSpeed="max" type="CarA">
    <route edges="edge_1 -edge_0"/>
  </vehicle>

  <vehicle id="car_178" color="1,1,0" depart="526" departLane="2" arrivalLane="1" departSpeed="max" type="CarA">
    <route edges="edge_0 -edge_1"/>
  </vehicle>

  <vehicle id="car_179" color="1,1,0" depart="533" departLane="0" arrivalLane="0" departSpeed="max" type="CarA">
    <route edges="edge_0 -edge_3"/>
  </vehicle>

  <vehicle id="car_180" color="1,1,0" depart="535" departLane="0" arrivalLane="0" departSpeed="max" type="CarA">
    <route edges="edge_1 -edge_0"/>
  </vehicle>

  <vehicle id="car_181" color="1,1,0" depart="541" departLane="2" arrivalLane="2" departSpeed="max" type="CarA">
    <route edges="edge_0 -edge_1"/>
  </vehicle>

  <vehicle id="car_182" color="1,1,0" depart="543" departLane="2" arrivalLane="1" departSpeed="max" type="CarA">
    <route edges="edge_0 -edge_1"/>
  </vehicle>

  <vehicle id="car_183" color="1,1,0" depart="552" departLane="0" arrivalLane="2" departSpeed="max" type="CarA">
    <route edges="edge_3 -edge_2"/>
  </vehicle>

  <vehicle id="car_184" color="1,1,0" depart="559" departLane="2" arrivalLane="0" departSpeed="max" type="CarA">
    <route edges="edge_1 -edge_2"/>
  </vehicle>
