<?xml version="1.0" encoding="UTF-8"?>

<configuration xmlns:xsi="http://www.w3.org/2001/XMLSchema-instance" xsi:noNamespaceSchemaLocation="http://sumo.dlr.de/xsd/sumoConfiguration.xsd">

    <input>
        <net-file value="net.net.xml"/>
        <route-files value="test.rou.xml"/>
    </input>

    <time>
        <begin value="0"/>
        <end value="90000"/>
        <step-length value="1"/>
    </time>
    
    <report>
        <no-warnings value="True"/>
    </report>

    <processing>
        <lanechange.overtake-right value="true"/>
        <collision.action value="none"/>
    </processing>
    
    <gui_only>
        <gui-settings-file value="setting.settings.xml"/>
             	<start value="t"/>
		        <quit-on-end value="t"/>
    </gui_only>

	
</configuration>