<?xml version="1.0" encoding="UTF-8"?>

<!-- generated on 04/19/21 08:52:20 by Eclipse SUMO netedit Version 1.3.1
<configuration xmlns:xsi="http://www.w3.org/2001/XMLSchema-instance" xsi:noNamespaceSchemaLocation="http://sumo.dlr.de/xsd/netconvertConfiguration.xsd">

    <input>
        <sumo-net-file value="C:\Users\HuangH\Desktop\env\net.net.xml"/>
    </input>

    <output>
        <output-file value="C:\Users\HuangH\Desktop\env\net.net.xml"/>
    </output>

    <processing>
        <geometry.max-grade.fix value="false"/>
        <offset.disable-normalization value="true"/>
        <opposites.guess.fix-lengths value="true"/>
        <lefthand value="false"/>
    </processing>

    <junctions>
        <no-turnarounds value="true"/>
        <junctions.corner-detail value="5"/>
        <junctions.limit-turn-speed value="5.5"/>
        <rectangular-lane-cut value="false"/>
    </junctions>

    <pedestrian>
        <walkingareas value="false"/>
    </pedestrian>

</configuration>
-->

<net version="1.3" junctionCornerDetail="5" limitTurnSpeed="5.50" xmlns:xsi="http://www.w3.org/2001/XMLSchema-instance" xsi:noNamespaceSchemaLocation="http://sumo.dlr.de/xsd/net_file.xsd">

    <location netOffset="0.00,0.00" convBoundary="-300.00,-300.00,300.00,300.00" origBoundary="-10000000000.00,-10000000000.00,10000000000.00,10000000000.00" projParameter="!"/>

    <edge id=":node_0_0" function="internal">
        <lane id=":node_0_0_0" index="0" speed="6.51" length="9.03" shape="-8.00,13.60 -8.35,11.15 -9.40,9.40 -11.15,8.35 -13.60,8.00"/>
    </edge>
    <edge id=":node_0_1" function="internal">
        <lane id=":node_0_1_0" index="0" speed="7.33" length="11.73" shape="-8.00,13.60 -8.35,9.75 -9.40,7.00 -11.15,5.35 -13.60,4.80"/>
    </edge>
    <edge id=":node_0_2" function="internal">
        <lane id=":node_0_2_0" index="0" speed="8.10" length="14.57" shape="-8.00,13.60 -8.35,8.35 -9.40,4.60 -11.15,2.35 -13.60,1.60"/>
    </edge>
    <edge id=":node_0_3" function="internal">
        <lane id=":node_0_3_0" index="0" speed="50.00" length="27.37" shape="-4.80,13.60 -5.30,5.50 -6.40,0.00 -7.50,-5.50 -8.00,-13.60"/>
        <lane id=":node_0_3_1" index="1" speed="50.00" length="27.37" shape="-4.80,13.60 -4.80,-13.60"/>
        <lane id=":node_0_3_2" index="2" speed="50.00" length="27.37" shape="-4.80,13.60 -4.30,5.50 -3.20,0.00 -2.10,-5.50 -1.60,-13.60"/>
    </edge>
    <edge id=":node_0_6" function="internal">
        <lane id=":node_0_6_0" index="0" speed="11.39" length="29.85" shape="-1.60,13.60 -0.65,4.15 2.20,-2.60 6.95,-6.65 13.60,-8.00"/>
    </edge>
    <edge id=":node_0_7" function="internal">
        <lane id=":node_0_7_0" index="0" speed="10.88" length="27.14" shape="-1.60,13.60 -0.65,5.55 2.20,-0.20 6.95,-3.65 13.60,-4.80"/>
    </edge>
    <edge id=":node_0_8" function="internal">
        <lane id=":node_0_8_0" index="0" speed="10.36" length="24.51" shape="-1.60,13.60 -0.65,6.95 2.20,2.20 6.95,-0.65 13.60,-1.60"/>
    </edge>
    <edge id=":node_0_9" function="internal">
        <lane id=":node_0_9_0" index="0" speed="6.51" length="9.03" shape="13.60,8.00 11.15,8.35 9.40,9.40 8.35,11.15 8.00,13.60"/>
    </edge>
    <edge id=":node_0_10" function="internal">
        <lane id=":node_0_10_0" index="0" speed="7.33" length="11.73" shape="13.60,8.00 9.75,8.35 7.00,9.40 5.35,11.15 4.80,13.60"/>
    </edge>
    <edge id=":node_0_11" function="internal">
        <lane id=":node_0_11_0" index="0" speed="8.10" length="14.57" shape="13.60,8.00 8.35,8.35 4.60,9.40 2.35,11.15 1.60,13.60"/>
    </edge>
    <edge id=":node_0_12" function="internal">
        <lane id=":node_0_12_0" index="0" speed="50.00" length="27.37" shape="13.60,4.80 5.50,5.30 0.00,6.40 -5.50,7.50 -13.60,8.00"/>
        <lane id=":node_0_12_1" index="1" speed="50.00" length="27.37" shape="13.60,4.80 -13.60,4.80"/>
        <lane id=":node_0_12_2" index="2" speed="50.00" length="27.37" shape="13.60,4.80 5.50,4.30 0.00,3.20 -5.50,2.10 -13.60,1.60"/>
    </edge>
    <edge id=":node_0_15" function="internal">
        <lane id=":node_0_15_0" index="0" speed="11.39" length="29.85" shape="13.60,1.60 4.15,0.65 -2.60,-2.20 -6.65,-6.95 -8.00,-13.60"/>
    </edge>
    <edge id=":node_0_16" function="internal">
        <lane id=":node_0_16_0" index="0" speed="10.88" length="27.14" shape="13.60,1.60 5.55,0.65 -0.20,-2.20 -3.65,-6.95 -4.80,-13.60"/>
    </edge>
    <edge id=":node_0_17" function="internal">
        <lane id=":node_0_17_0" index="0" speed="10.36" length="24.51" shape="13.60,1.60 6.95,0.65 2.20,-2.20 -0.65,-6.95 -1.60,-13.60"/>
    </edge>
    <edge id=":node_0_18" function="internal">
        <lane id=":node_0_18_0" index="0" speed="6.51" length="9.03" shape="8.00,-13.60 8.35,-11.15 9.40,-9.40 11.15,-8.35 13.60,-8.00"/>
    </edge>
    <edge id=":node_0_19" function="internal">
        <lane id=":node_0_19_0" index="0" speed="7.33" length="11.73" shape="8.00,-13.60 8.35,-9.75 9.40,-7.00 11.15,-5.35 13.60,-4.80"/>
    </edge>
    <edge id=":node_0_20" function="internal">
        <lane id=":node_0_20_0" index="0" speed="8.10" length="14.57" shape="8.00,-13.60 8.35,-8.35 9.40,-4.60 11.15,-2.35 13.60,-1.60"/>
    </edge>
    <edge id=":node_0_21" function="internal">
        <lane id=":node_0_21_0" index="0" speed="50.00" length="27.37" shape="4.80,-13.60 5.30,-5.50 6.40,-0.00 7.50,5.50 8.00,13.60"/>
        <lane id=":node_0_21_1" index="1" speed="50.00" length="27.37" shape="4.80,-13.60 4.80,13.60"/>
        <lane id=":node_0_21_2" index="2" speed="50.00" length="27.37" shape="4.80,-13.60 4.30,-5.50 3.20,-0.00 2.10,5.50 1.60,13.60"/>
    </edge>
    <edge id=":node_0_24" function="internal">
        <lane id=":node_0_24_0" index="0" speed="11.39" length="29.85" shape="1.60,-13.60 0.65,-4.15 -2.20,2.60 -6.95,6.65 -13.60,8.00"/>
    </edge>
    <edge id=":node_0_25" function="internal">
        <lane id=":node_0_25_0" index="0" speed="10.88" length="27.14" shape="1.60,-13.60 0.65,-5.55 -2.20,0.20 -6.95,3.65 -13.60,4.80"/>
    </edge>
    <edge id=":node_0_26" function="internal">
        <lane id=":node_0_26_0" index="0" speed="10.36" length="24.51" shape="1.60,-13.60 0.65,-6.95 -2.20,-2.20 -6.95,0.65 -13.60,1.60"/>
    </edge>
    <edge id=":node_0_27" function="internal">
        <lane id=":node_0_27_0" index="0" speed="6.51" length="9.03" shape="-13.60,-8.00 -11.15,-8.35 -9.40,-9.40 -8.35,-11.15 -8.00,-13.60"/>
    </edge>
    <edge id=":node_0_28" function="internal">
        <lane id=":node_0_28_0" index="0" speed="7.33" length="11.73" shape="-13.60,-8.00 -9.75,-8.35 -7.00,-9.40 -5.35,-11.15 -4.80,-13.60"/>
    </edge>
    <edge id=":node_0_29" function="internal">
        <lane id=":node_0_29_0" index="0" speed="8.10" length="14.57" shape="-13.60,-8.00 -8.35,-8.35 -4.60,-9.40 -2.35,-11.15 -1.60,-13.60"/>
    </edge>
    <edge id=":node_0_30" function="internal">
        <lane id=":node_0_30_0" index="0" speed="50.00" length="27.37" shape="-13.60,-4.80 -5.50,-5.30 -0.00,-6.40 5.50,-7.50 13.60,-8.00"/>
        <lane id=":node_0_30_1" index="1" speed="50.00" length="27.37" shape="-13.60,-4.80 13.60,-4.80"/>
        <lane id=":node_0_30_2" index="2" speed="50.00" length="27.37" shape="-13.60,-4.80 -5.50,-4.30 -0.00,-3.20 5.50,-2.10 13.60,-1.60"/>
    </edge>
    <edge id=":node_0_33" function="internal">
        <lane id=":node_0_33_0" index="0" speed="11.39" length="29.85" shape="-13.60,-1.60 -4.15,-0.65 2.60,2.20 6.65,6.95 8.00,13.60"/>
    </edge>
    <edge id=":node_0_34" function="internal">
        <lane id=":node_0_34_0" index="0" speed="10.88" length="27.14" shape="-13.60,-1.60 -5.55,-0.65 0.20,2.20 3.65,6.95 4.80,13.60"/>
    </edge>
    <edge id=":node_0_35" function="internal">
        <lane id=":node_0_35_0" index="0" speed="10.36" length="24.51" shape="-13.60,-1.60 -6.95,-0.65 -2.20,2.20 0.65,6.95 1.60,13.60"/>
    </edge>

    <edge id="-edge_0" from="node_0" to="node_1" priority="-1" length="300.00">
        <lane id="-edge_0_0" index="0" speed="50.00" length="300.00" shape="-13.60,8.00 -300.00,8.00"/>
        <lane id="-edge_0_1" index="1" speed="50.00" length="300.00" shape="-13.60,4.80 -300.00,4.80"/>
        <lane id="-edge_0_2" index="2" speed="50.00" length="300.00" shape="-13.60,1.60 -300.00,1.60"/>
    </edge>
    <edge id="-edge_1" from="node_0" to="node_2" priority="-1" length="300.00">
        <lane id="-edge_1_0" index="0" speed="50.00" length="300.00" shape="8.00,13.60 8.00,300.00"/>
        <lane id="-edge_1_1" index="1" speed="50.00" length="300.00" shape="4.80,13.60 4.80,300.00"/>
        <lane id="-edge_1_2" index="2" speed="50.00" length="300.00" shape="1.60,13.60 1.60,300.00"/>
    </edge>
    <edge id="-edge_2" from="node_0" to="node_3" priority="-1" length="300.00">
        <lane id="-edge_2_0" index="0" speed="50.00" length="300.00" shape="13.60,-8.00 300.00,-8.00"/>
        <lane id="-edge_2_1" index="1" speed="50.00" length="300.00" shape="13.60,-4.80 300.00,-4.80"/>
        <lane id="-edge_2_2" index="2" speed="50.00" length="300.00" shape="13.60,-1.60 300.00,-1.60"/>
    </edge>
    <edge id="-edge_3" from="node_0" to="node_4" priority="-1" length="300.00">
        <lane id="-edge_3_0" index="0" speed="50.00" length="300.00" shape="-8.00,-13.60 -8.00,-300.00"/>
        <lane id="-edge_3_1" index="1" speed="50.00" length="300.00" shape="-4.80,-13.60 -4.80,-300.00"/>
        <lane id="-edge_3_2" index="2" speed="50.00" length="300.00" shape="-1.60,-13.60 -1.60,-300.00"/>
    </edge>
    <edge id="edge_0" from="node_1" to="node_0" priority="-1" length="300.00">
        <lane id="edge_0_0" index="0" speed="50.00" length="300.00" shape="-300.00,-8.00 -13.60,-8.00"/>
        <lane id="edge_0_1" index="1" speed="50.00" length="300.00" shape="-300.00,-4.80 -13.60,-4.80"/>
        <lane id="edge_0_2" index="2" speed="50.00" length="300.00" shape="-300.00,-1.60 -13.60,-1.60"/>
    </edge>
    <edge id="edge_1" from="node_2" to="node_0" priority="-1" length="300.00">
        <lane id="edge_1_0" index="0" speed="50.00" length="300.00" shape="-8.00,300.00 -8.00,13.60"/>
        <lane id="edge_1_1" index="1" speed="50.00" length="300.00" shape="-4.80,300.00 -4.80,13.60"/>
        <lane id="edge_1_2" index="2" speed="50.00" length="300.00" shape="-1.60,300.00 -1.60,13.60"/>
    </edge>
    <edge id="edge_2" from="node_3" to="node_0" priority="-1" length="300.00">
        <lane id="edge_2_0" index="0" speed="50.00" length="300.00" shape="300.00,8.00 13.60,8.00"/>
        <lane id="edge_2_1" index="1" speed="50.00" length="300.00" shape="300.00,4.80 13.60,4.80"/>
        <lane id="edge_2_2" index="2" speed="50.00" length="300.00" shape="300.00,1.60 13.60,1.60"/>
    </edge>
    <edge id="edge_3" from="node_4" to="node_0" priority="-1" length="300.00">
        <lane id="edge_3_0" index="0" speed="50.00" length="300.00" shape="8.00,-300.00 8.00,-13.60"/>
        <lane id="edge_3_1" index="1" speed="50.00" length="300.00" shape="4.80,-300.00 4.80,-13.60"/>
        <lane id="edge_3_2" index="2" speed="50.00" length="300.00" shape="1.60,-300.00 1.60,-13.60"/>
    </edge>

    <tlLogic id="gneJ1" type="static" programID="0" offset="0">
        <phase duration="20" state="GGGGGGrrrGGGrrrrrrGGGGGGrrrGGGrrrrrr"/>
        <phase duration="3"  state="GGGYYYrrrGGGrrrrrrGGGYYYrrrGGGrrrrrr"/>
        <phase duration="2"  state="GGGrrrrrrGGGrrrrrrGGGrrrrrrGGGrrrrrr"/>
        <phase duration="20" state="GGGrrrGGGGGGrrrrrrGGGrrrGGGGGGrrrrrr"/>
        <phase duration="3"  state="GGGrrrYYYGGGrrrrrrGGGrrrYYYGGGrrrrrr"/>
        <phase duration="2"  state="GGGrrrrrrGGGrrrrrrGGGrrrrrrGGGrrrrrr"/>
        <phase duration="20" state="GGGrrrrrrGGGGGGrrrGGGrrrrrrGGGGGGrrr"/>
        <phase duration="3"  state="GGGrrrrrrGGGYYYrrrGGGrrrrrrGGGYYYrrr"/>
        <phase duration="2"  state="GGGrrrrrrGGGrrrrrrGGGrrrrrrGGGrrrrrr"/>
        <phase duration="20" state="GGGrrrrrrGGGrrrGGGGGGrrrrrrGGGrrrGGG"/>
        <phase duration="3"  state="GGGrrrrrrGGGrrrYYYGGGrrrrrrGGGrrrYYY"/>
        <phase duration="2"  state="GGGrrrrrrGGGrrrrrrGGGrrrrrrGGGrrrrrr"/>
    </tlLogic>

    <junction id="node_0" type="traffic_light" x="0.00" y="0.00" incLanes="edge_1_0 edge_1_1 edge_1_2 edge_2_0 edge_2_1 edge_2_2 edge_3_0 edge_3_1 edge_3_2 edge_0_0 edge_0_1 edge_0_2" intLanes=":node_0_0_0 :node_0_1_0 :node_0_2_0 :node_0_3_0 :node_0_3_1 :node_0_3_2 :node_0_6_0 :node_0_7_0 :node_0_8_0 :node_0_9_0 :node_0_10_0 :node_0_11_0 :node_0_12_0 :node_0_12_1 :node_0_12_2 :node_0_15_0 :node_0_16_0 :node_0_17_0 :node_0_18_0 :node_0_19_0 :node_0_20_0 :node_0_21_0 :node_0_21_1 :node_0_21_2 :node_0_24_0 :node_0_25_0 :node_0_26_0 :node_0_27_0 :node_0_28_0 :node_0_29_0 :node_0_30_0 :node_0_30_1 :node_0_30_2 :node_0_33_0 :node_0_34_0 :node_0_35_0" shape="-9.60,13.60 9.60,13.60 10.04,11.38 10.60,10.60 11.38,10.04 12.38,9.71 13.60,9.60 13.60,-9.60 11.38,-10.04 10.60,-10.60 10.04,-11.38 9.71,-12.38 9.60,-13.60 -9.60,-13.60 -10.04,-11.38 -10.60,-10.60 -11.38,-10.04 -12.38,-9.71 -13.60,-9.60 -13.60,9.60 -11.38,10.04 -10.60,10.60 -10.04,11.38 -9.71,12.38">
        <request index="0"  response="000000000000000000000000000000000000" foes="000000000111000000000111000000000000" cont="0"/>
        <request index="1"  response="000000000000000000000000000000000000" foes="000000000111000000000111000000000000" cont="0"/>
        <request index="2"  response="000000000000000000000000000000000000" foes="000000000111000000000111000000000000" cont="0"/>
        <request index="3"  response="000000000000000000000000000000000000" foes="111111111111000000111111000000000000" cont="0"/>
        <request index="4"  response="000000000000000000000000000000000000" foes="111111111111000000111111000000000000" cont="0"/>
        <request index="5"  response="000000000000000000000000000000000000" foes="111111111111000000111111000000000000" cont="0"/>
        <request index="6"  response="000000000000111111000000000000000000" foes="111111000000111111111111000000000000" cont="0"/>
        <request index="7"  response="000000000000111111000000000000000000" foes="111111000000111111111111000000000000" cont="0"/>
        <request index="8"  response="000000000000111111000000000000000000" foes="111111000000111111111111000000000000" cont="0"/>
        <request index="9"  response="000000000000111000000000000000000000" foes="111000000000111000000000000000000000" cont="0"/>
        <request index="10" response="000000000000111000000000000000000000" foes="111000000000111000000000000000000000" cont="0"/>
        <request index="11" response="000000000000111000000000000000000000" foes="111000000000111000000000000000000000" cont="0"/>
        <request index="12" response="000000000111111000000000000111111111" foes="111000000111111000000000000111111111" cont="0"/>
        <request index="13" response="000000000111111000000000000111111111" foes="111000000111111000000000000111111111" cont="0"/>
        <request index="14" response="000000000111111000000000000111111111" foes="111000000111111000000000000111111111" cont="0"/>
        <request index="15" response="000111111111111000000000000111111000" foes="000111111111111000000000000111111000" cont="0"/>
        <request index="16" response="000111111111111000000000000111111000" foes="000111111111111000000000000111111000" cont="0"/>
        <request index="17" response="000111111111111000000000000111111000" foes="000111111111111000000000000111111000" cont="0"/>
        <request index="18" response="000000000000000000000000000000000000" foes="000111000000000000000000000111000000" cont="0"/>
        <request index="19" response="000000000000000000000000000000000000" foes="000111000000000000000000000111000000" cont="0"/>
        <request index="20" response="000000000000000000000000000000000000" foes="000111000000000000000000000111000000" cont="0"/>
        <request index="21" response="000000000000000000000000000000000000" foes="111111000000000000111111111111000000" cont="0"/>
        <request index="22" response="000000000000000000000000000000000000" foes="111111000000000000111111111111000000" cont="0"/>
        <request index="23" response="000000000000000000000000000000000000" foes="111111000000000000111111111111000000" cont="0"/>
        <request index="24" response="000000000000000000000000000000111111" foes="111111000000000000111111000000111111" cont="0"/>
        <request index="25" response="000000000000000000000000000000111111" foes="111111000000000000111111000000111111" cont="0"/>
        <request index="26" response="000000000000000000000000000000111111" foes="111111000000000000111111000000111111" cont="0"/>
        <request index="27" response="000000000000000000000000000000111000" foes="000000000000000000111000000000111000" cont="0"/>
        <request index="28" response="000000000000000000000000000000111000" foes="000000000000000000111000000000111000" cont="0"/>
        <request index="29" response="000000000000000000000000000000111000" foes="000000000000000000111000000000111000" cont="0"/>
        <request index="30" response="000000000111111111000000000111111000" foes="000000000111111111111000000111111000" cont="0"/>
        <request index="31" response="000000000111111111000000000111111000" foes="000000000111111111111000000111111000" cont="0"/>
        <request index="32" response="000000000111111111000000000111111000" foes="000000000111111111111000000111111000" cont="0"/>
        <request index="33" response="000000000111111000000111111111111000" foes="000000000111111000000111111111111000" cont="0"/>
        <request index="34" response="000000000111111000000111111111111000" foes="000000000111111000000111111111111000" cont="0"/>
        <request index="35" response="000000000111111000000111111111111000" foes="000000000111111000000111111111111000" cont="0"/>
    </junction>
    <junction id="node_1" type="dead_end" x="-300.00" y="0.00" incLanes="-edge_0_0 -edge_0_1 -edge_0_2" intLanes="" shape="-300.00,0.00 -300.00,9.60 -300.00,0.00"/>
    <junction id="node_2" type="dead_end" x="0.00" y="300.00" incLanes="-edge_1_0 -edge_1_1 -edge_1_2" intLanes="" shape="0.00,300.00 9.60,300.00 0.00,300.00"/>
    <junction id="node_3" type="dead_end" x="300.00" y="0.00" incLanes="-edge_2_0 -edge_2_1 -edge_2_2" intLanes="" shape="300.00,0.00 300.00,-9.60 300.00,0.00"/>
    <junction id="node_4" type="dead_end" x="0.00" y="-300.00" incLanes="-edge_3_0 -edge_3_1 -edge_3_2" intLanes="" shape="0.00,-300.00 -9.60,-300.00 0.00,-300.00"/>

    <connection from="edge_0" to="-edge_3" fromLane="0" toLane="0" via=":node_0_27_0" tl="gneJ1" linkIndex="27" dir="r" state="o"/>
    <connection from="edge_0" to="-edge_3" fromLane="0" toLane="1" via=":node_0_28_0" tl="gneJ1" linkIndex="28" dir="r" state="o"/>
    <connection from="edge_0" to="-edge_3" fromLane="0" toLane="2" via=":node_0_29_0" tl="gneJ1" linkIndex="29" dir="r" state="o"/>
    <connection from="edge_0" to="-edge_2" fromLane="1" toLane="0" via=":node_0_30_0" tl="gneJ1" linkIndex="30" dir="s" state="o"/>
    <connection from="edge_0" to="-edge_2" fromLane="1" toLane="1" via=":node_0_30_1" tl="gneJ1" linkIndex="31" dir="s" state="o"/>
    <connection from="edge_0" to="-edge_2" fromLane="1" toLane="2" via=":node_0_30_2" tl="gneJ1" linkIndex="32" dir="s" state="o"/>
    <connection from="edge_0" to="-edge_1" fromLane="2" toLane="0" via=":node_0_33_0" tl="gneJ1" linkIndex="33" dir="l" state="o"/>
    <connection from="edge_0" to="-edge_1" fromLane="2" toLane="1" via=":node_0_34_0" tl="gneJ1" linkIndex="34" dir="l" state="o"/>
    <connection from="edge_0" to="-edge_1" fromLane="2" toLane="2" via=":node_0_35_0" tl="gneJ1" linkIndex="35" dir="l" state="o"/>
    <connection from="edge_1" to="-edge_0" fromLane="0" toLane="0" via=":node_0_0_0" tl="gneJ1" linkIndex="0" dir="r" state="O"/>
    <connection from="edge_1" to="-edge_0" fromLane="0" toLane="1" via=":node_0_1_0" tl="gneJ1" linkIndex="1" dir="r" state="O"/>
    <connection from="edge_1" to="-edge_0" fromLane="0" toLane="2" via=":node_0_2_0" tl="gneJ1" linkIndex="2" dir="r" state="O"/>
    <connection from="edge_1" to="-edge_3" fromLane="1" toLane="0" via=":node_0_3_0" tl="gneJ1" linkIndex="3" dir="s" state="O"/>
    <connection from="edge_1" to="-edge_3" fromLane="1" toLane="1" via=":node_0_3_1" tl="gneJ1" linkIndex="4" dir="s" state="O"/>
    <connection from="edge_1" to="-edge_3" fromLane="1" toLane="2" via=":node_0_3_2" tl="gneJ1" linkIndex="5" dir="s" state="O"/>
    <connection from="edge_1" to="-edge_2" fromLane="2" toLane="0" via=":node_0_6_0" tl="gneJ1" linkIndex="6" dir="l" state="o"/>
    <connection from="edge_1" to="-edge_2" fromLane="2" toLane="1" via=":node_0_7_0" tl="gneJ1" linkIndex="7" dir="l" state="o"/>
    <connection from="edge_1" to="-edge_2" fromLane="2" toLane="2" via=":node_0_8_0" tl="gneJ1" linkIndex="8" dir="l" state="o"/>
    <connection from="edge_2" to="-edge_1" fromLane="0" toLane="0" via=":node_0_9_0" tl="gneJ1" linkIndex="9" dir="r" state="o"/>
    <connection from="edge_2" to="-edge_1" fromLane="0" toLane="1" via=":node_0_10_0" tl="gneJ1" linkIndex="10" dir="r" state="o"/>
    <connection from="edge_2" to="-edge_1" fromLane="0" toLane="2" via=":node_0_11_0" tl="gneJ1" linkIndex="11" dir="r" state="o"/>
    <connection from="edge_2" to="-edge_0" fromLane="1" toLane="0" via=":node_0_12_0" tl="gneJ1" linkIndex="12" dir="s" state="o"/>
    <connection from="edge_2" to="-edge_0" fromLane="1" toLane="1" via=":node_0_12_1" tl="gneJ1" linkIndex="13" dir="s" state="o"/>
    <connection from="edge_2" to="-edge_0" fromLane="1" toLane="2" via=":node_0_12_2" tl="gneJ1" linkIndex="14" dir="s" state="o"/>
    <connection from="edge_2" to="-edge_3" fromLane="2" toLane="0" via=":node_0_15_0" tl="gneJ1" linkIndex="15" dir="l" state="o"/>
    <connection from="edge_2" to="-edge_3" fromLane="2" toLane="1" via=":node_0_16_0" tl="gneJ1" linkIndex="16" dir="l" state="o"/>
    <connection from="edge_2" to="-edge_3" fromLane="2" toLane="2" via=":node_0_17_0" tl="gneJ1" linkIndex="17" dir="l" state="o"/>
    <connection from="edge_3" to="-edge_2" fromLane="0" toLane="0" via=":node_0_18_0" tl="gneJ1" linkIndex="18" dir="r" state="O"/>
    <connection from="edge_3" to="-edge_2" fromLane="0" toLane="1" via=":node_0_19_0" tl="gneJ1" linkIndex="19" dir="r" state="O"/>
    <connection from="edge_3" to="-edge_2" fromLane="0" toLane="2" via=":node_0_20_0" tl="gneJ1" linkIndex="20" dir="r" state="O"/>
    <connection from="edge_3" to="-edge_1" fromLane="1" toLane="0" via=":node_0_21_0" tl="gneJ1" linkIndex="21" dir="s" state="O"/>
    <connection from="edge_3" to="-edge_1" fromLane="1" toLane="1" via=":node_0_21_1" tl="gneJ1" linkIndex="22" dir="s" state="O"/>
    <connection from="edge_3" to="-edge_1" fromLane="1" toLane="2" via=":node_0_21_2" tl="gneJ1" linkIndex="23" dir="s" state="O"/>
    <connection from="edge_3" to="-edge_0" fromLane="2" toLane="0" via=":node_0_24_0" tl="gneJ1" linkIndex="24" dir="l" state="o"/>
    <connection from="edge_3" to="-edge_0" fromLane="2" toLane="1" via=":node_0_25_0" tl="gneJ1" linkIndex="25" dir="l" state="o"/>
    <connection from="edge_3" to="-edge_0" fromLane="2" toLane="2" via=":node_0_26_0" tl="gneJ1" linkIndex="26" dir="l" state="o"/>

    <connection from=":node_0_0" to="-edge_0" fromLane="0" toLane="0" dir="r" state="M"/>
    <connection from=":node_0_1" to="-edge_0" fromLane="0" toLane="1" dir="r" state="M"/>
    <connection from=":node_0_2" to="-edge_0" fromLane="0" toLane="2" dir="r" state="M"/>
    <connection from=":node_0_3" to="-edge_3" fromLane="0" toLane="0" dir="s" state="M"/>
    <connection from=":node_0_3" to="-edge_3" fromLane="1" toLane="1" dir="s" state="M"/>
    <connection from=":node_0_3" to="-edge_3" fromLane="2" toLane="2" dir="s" state="M"/>
    <connection from=":node_0_6" to="-edge_2" fromLane="0" toLane="0" dir="l" state="M"/>
    <connection from=":node_0_7" to="-edge_2" fromLane="0" toLane="1" dir="l" state="M"/>
    <connection from=":node_0_8" to="-edge_2" fromLane="0" toLane="2" dir="l" state="M"/>
    <connection from=":node_0_9" to="-edge_1" fromLane="0" toLane="0" dir="r" state="M"/>
    <connection from=":node_0_10" to="-edge_1" fromLane="0" toLane="1" dir="r" state="M"/>
    <connection from=":node_0_11" to="-edge_1" fromLane="0" toLane="2" dir="r" state="M"/>
    <connection from=":node_0_12" to="-edge_0" fromLane="0" toLane="0" dir="s" state="M"/>
    <connection from=":node_0_12" to="-edge_0" fromLane="1" toLane="1" dir="s" state="M"/>
    <connection from=":node_0_12" to="-edge_0" fromLane="2" toLane="2" dir="s" state="M"/>
    <connection from=":node_0_15" to="-edge_3" fromLane="0" toLane="0" dir="l" state="M"/>
    <connection from=":node_0_16" to="-edge_3" fromLane="0" toLane="1" dir="l" state="M"/>
    <connection from=":node_0_17" to="-edge_3" fromLane="0" toLane="2" dir="l" state="M"/>
    <connection from=":node_0_18" to="-edge_2" fromLane="0" toLane="0" dir="r" state="M"/>
    <connection from=":node_0_19" to="-edge_2" fromLane="0" toLane="1" dir="r" state="M"/>
    <connection from=":node_0_20" to="-edge_2" fromLane="0" toLane="2" dir="r" state="M"/>
    <connection from=":node_0_21" to="-edge_1" fromLane="0" toLane="0" dir="s" state="M"/>
    <connection from=":node_0_21" to="-edge_1" fromLane="1" toLane="1" dir="s" state="M"/>
    <connection from=":node_0_21" to="-edge_1" fromLane="2" toLane="2" dir="s" state="M"/>
    <connection from=":node_0_24" to="-edge_0" fromLane="0" toLane="0" dir="l" state="M"/>
    <connection from=":node_0_25" to="-edge_0" fromLane="0" toLane="1" dir="l" state="M"/>
    <connection from=":node_0_26" to="-edge_0" fromLane="0" toLane="2" dir="l" state="M"/>
    <connection from=":node_0_27" to="-edge_3" fromLane="0" toLane="0" dir="r" state="M"/>
    <connection from=":node_0_28" to="-edge_3" fromLane="0" toLane="1" dir="r" state="M"/>
    <connection from=":node_0_29" to="-edge_3" fromLane="0" toLane="2" dir="r" state="M"/>
    <connection from=":node_0_30" to="-edge_2" fromLane="0" toLane="0" dir="s" state="M"/>
    <connection from=":node_0_30" to="-edge_2" fromLane="1" toLane="1" dir="s" state="M"/>
    <connection from=":node_0_30" to="-edge_2" fromLane="2" toLane="2" dir="s" state="M"/>
    <connection from=":node_0_33" to="-edge_1" fromLane="0" toLane="0" dir="l" state="M"/>
    <connection from=":node_0_34" to="-edge_1" fromLane="0" toLane="1" dir="l" state="M"/>
    <connection from=":node_0_35" to="-edge_1" fromLane="0" toLane="2" dir="l" state="M"/>

    <additional>
        <inductionLoop id="e_0_0" lane="-edge_0_0" pos="295.00" freq="900" file="e1Detector_edge_0_0.xml" friendlyPos="true"/>
		<inductionLoop id="e_0_1" lane="-edge_0_1" pos="295.00" freq="900" file="e1Detector_edge_0_1.xml" friendlyPos="true"/>
		<inductionLoop id="e_0_2" lane="-edge_0_2" pos="295.00" freq="900" file="e1Detector_edge_0_2.xml" friendlyPos="true"/>

        <inductionLoop id="e_1_0" lane="-edge_1_0" pos="295.00" freq="900" file="e1Detector_edge_1_0.xml" friendlyPos="true"/>
		<inductionLoop id="e_1_1" lane="-edge_1_1" pos="295.00" freq="900" file="e1Detector_edge_1_1.xml" friendlyPos="true"/>
		<inductionLoop id="e_1_2" lane="-edge_1_2" pos="295.00" freq="900" file="e1Detector_edge_1_2.xml" friendlyPos="true"/>

        <inductionLoop id="e_2_0" lane="-edge_2_0" pos="295.00" freq="900" file="e1Detector_edge_2_0.xml" friendlyPos="true"/>
		<inductionLoop id="e_2_1" lane="-edge_2_1" pos="295.00" freq="900" file="e1Detector_edge_2_1.xml" friendlyPos="true"/>
		<inductionLoop id="e_2_2" lane="-edge_2_2" pos="295.00" freq="900" file="e1Detector_edge_2_2.xml" friendlyPos="true"/>

        <inductionLoop id="e_3_0" lane="-edge_3_0" pos="295.00" freq="900" file="e1Detector_edge_3_0.xml" friendlyPos="true"/>
		<inductionLoop id="e_3_1" lane="-edge_3_1" pos="295.00" freq="900" file="e1Detector_edge_3_1.xml" friendlyPos="true"/>
		<inductionLoop id="e_3_2" lane="-edge_3_2" pos="295.00" freq="900" file="e1Detector_edge_3_2.xml" friendlyPos="true"/>
    </additional>>

</net>
